/*--------------------------------*- C++ -*----------------------------------*\
| =========                 |                                                 |
| \\      /  F ield         | OpenFOAM: The Open Source CFD Toolbox           |
|  \\    /   O peration     | Version:  v2006                                 |
|   \\  /    A nd           | Website:  www.openfoam.com                      |
|    \\/     M anipulation  |                                                 |
\*---------------------------------------------------------------------------*/
FoamFile
{
    version     2.0;
    format      ascii;
    class       dictionary;
    object      blockMeshDict;
}
// * * * * * * * * * * * * * * * * * * * * * * * * * * * * * * * * * * * * * //

scale   1;

vertices
(
    (0 0 0)         //0
    (1 0 0)         //1 
    (1 0.01 0)      //2
    (0 0.01 0)      //3
    (0 0 0.01)      //4
    (1 0 0.01)      //5
    (1 0.01 0.01)   //6 
    (0 0.01 0.01)   //7  
    
);

blocks
(
    hex (0 1 2 3 4 5 6 7) (1000 1 1) simpleGrading (1 1 1)
);

edges
(
);

boundary
(
    leftWall
    {
        type wall;
        faces
        (
            (3 0 4 7)
        );
    }
    rightWall
    {
        type wall;
        faces
        (
            (6 5 1 2)
        );
    }
    
);

mergePatchPairs
(
);

// ************************************************************************* //
