/*--------------------------------*- C++ -*----------------------------------*\
| =========                 |                                                 |
| \\      /  F ield         | OpenFOAM: The Open Source CFD Toolbox           |
|  \\    /   O peration     | Version:  v2006                                 |
|   \\  /    A nd           | Website:  www.openfoam.com                      |
|    \\/     M anipulation  |                                                 |
\*---------------------------------------------------------------------------*/
FoamFile
{
    version     2.0;
    format      ascii;
    class       dictionary;
    location    "system";
    object      fvSolution;
}
// * * * * * * * * * * * * * * * * * * * * * * * * * * * * * * * * * * * * * //

solvers
{
    T
    {
      /*  solver          PCG;
        preconditioner  DIC;
        tolerance       1e-10;
        relTol          0;  */
       
        solver          smoothSolver;
        smoother        symGaussSeidel;
        tolerance       1e-08;           //1e-6
        relTol          0; 

    }

    Y_PRE_L
    {
      /*  solver          PCG;
        preconditioner  DIC;
        tolerance       1e-10;
        relTol          0;  */
       
        solver          smoothSolver;
        smoother        symGaussSeidel;
        tolerance       1e-08;           //1e-6
        relTol          0; 

    }

    Y_2EHA_L
    {
      /*  solver          PCG;
        preconditioner  DIC;
        tolerance       1e-10;
        relTol          0;  */
       
        solver          smoothSolver;
        smoother        symGaussSeidel;
        tolerance       1e-08;           //1e-6
        relTol          0; 

    }

    Y_PRE_L_1
    {
      /*  solver          PCG;
        preconditioner  DIC;
        tolerance       1e-10;
        relTol          0;  */
       
        solver          smoothSolver;
        smoother        symGaussSeidel;
        tolerance       1e-08;           //1e-6
        relTol          0; 

    }     

}

SIMPLE
{
    nNonOrthogonalCorrectors 2;
}


// ************************************************************************* //
