/*--------------------------------*- C++ -*----------------------------------*\
| =========                 |                                                 |
| \\      /  F ield         | OpenFOAM: The Open Source CFD Toolbox           |
|  \\    /   O peration     | Version:  2006                                  |
|   \\  /    A nd           | Website:  www.openfoam.com                      |
|    \\/     M anipulation  |                                                 |
\*---------------------------------------------------------------------------*/
FoamFile
{
    version     2.0;
    format      ascii;
    class       polyBoundaryMesh;
    location    "constant/polyMesh";
    object      boundary;
}
// * * * * * * * * * * * * * * * * * * * * * * * * * * * * * * * * * * * * * //

3
(
    leftWall
    {
        type            wall;
        inGroups        1(wall);
        nFaces          1;
        startFace       999;
    }
    rightWall
    {
        type            wall;
        inGroups        1(wall);
        nFaces          1;
        startFace       1000;
    }
    defaultFaces
    {
        type            empty;
        inGroups        1(empty);
        nFaces          4000;
        startFace       1001;
    }
)

// ************************************************************************* //
